'[FBAN/FB4A;FBAV/83.0.0.2694;FBBV/3215142;[FBAN/FB4A;FBAV/326.0.0.34.120;FBBV/303076505;FBDM/{density=3.0,width=1080,height=2060};FBLC/en_US;FBRV/0;FBCR/TELEMACH;FBMF/HUAWEI;FBBD/HUAWEI;FBPN/com.facebook.katana;FBDV/ANE-LX1;FBSV/9;FBOP/1;FBCA/arm64-v8a:;]'
